Version 4
SHEET 1 4772 1124
WIRE 3552 -384 2016 -384
WIRE 1632 -304 736 -304
WIRE 3008 -304 1632 -304
WIRE 3280 -304 3008 -304
WIRE 256 -176 -16 -176
WIRE 1120 -176 256 -176
WIRE 2048 -176 1120 -176
WIRE 2128 -176 2112 -176
WIRE 2240 -176 2208 -176
WIRE 2272 -176 2240 -176
WIRE 2352 -176 2272 -176
WIRE 2688 -176 2608 -176
WIRE 2848 -176 2688 -176
WIRE 3008 -176 3008 -304
WIRE 3008 -176 2848 -176
WIRE 3424 -176 3136 -176
WIRE 256 -144 256 -176
WIRE 3280 -112 3280 -304
WIRE 3136 -96 3136 -176
WIRE 3248 -96 3136 -96
WIRE 3424 -80 3424 -176
WIRE 3424 -80 3312 -80
WIRE 3552 -80 3552 -384
WIRE 3552 -80 3424 -80
WIRE 3008 -64 3008 -96
WIRE 3248 -64 3008 -64
WIRE 3008 -32 3008 -64
WIRE 256 0 256 -64
WIRE -16 16 -16 -176
WIRE 2272 48 2272 -176
WIRE 2688 48 2688 -176
WIRE 2848 48 2848 -176
WIRE 576 80 560 80
WIRE 688 80 656 80
WIRE 1120 80 1120 -176
WIRE 1456 80 1440 80
WIRE 1568 80 1536 80
WIRE 3008 80 3008 48
WIRE 448 144 400 144
WIRE 560 144 560 80
WIRE 560 144 528 144
WIRE 736 144 736 -304
WIRE 736 144 624 144
WIRE 1328 144 1280 144
WIRE 1440 144 1440 80
WIRE 1440 144 1408 144
WIRE 1632 144 1632 -304
WIRE 1632 144 1504 144
WIRE 560 160 560 144
WIRE 592 160 560 160
WIRE 1440 160 1440 144
WIRE 1472 160 1440 160
WIRE 688 176 688 80
WIRE 688 176 656 176
WIRE 752 176 688 176
WIRE 880 176 832 176
WIRE 944 176 880 176
WIRE 1568 176 1568 80
WIRE 1568 176 1536 176
WIRE 1664 176 1568 176
WIRE 1792 176 1744 176
WIRE 1856 176 1792 176
WIRE 592 192 560 192
WIRE 1472 192 1440 192
WIRE 256 208 256 80
WIRE 448 208 256 208
WIRE 560 208 560 192
WIRE 560 208 528 208
WIRE 880 208 880 176
WIRE 1120 208 1120 160
WIRE 1328 208 1120 208
WIRE 1440 208 1440 192
WIRE 1440 208 1408 208
WIRE 1792 208 1792 176
WIRE 560 224 560 208
WIRE 624 224 624 208
WIRE 640 224 624 224
WIRE 1440 224 1440 208
WIRE 1504 240 1504 208
WIRE 1536 240 1504 240
WIRE 1120 256 1120 208
WIRE 256 368 256 208
WIRE 560 384 560 304
WIRE 1440 384 1440 304
WIRE 1440 384 560 384
WIRE 2016 384 2016 -384
WIRE 2016 384 1440 384
WIRE 3008 400 3008 160
WIRE -16 480 -16 96
WIRE 256 480 256 448
WIRE 256 480 -16 480
WIRE 400 480 400 144
WIRE 400 480 256 480
WIRE 640 480 640 224
WIRE 640 480 400 480
WIRE 880 480 880 272
WIRE 880 480 640 480
WIRE 1120 480 1120 336
WIRE 1120 480 880 480
WIRE 1280 480 1280 144
WIRE 1280 480 1120 480
WIRE 1536 480 1536 240
WIRE 1536 480 1280 480
WIRE 1792 480 1792 272
WIRE 1792 480 1536 480
WIRE 2000 480 1792 480
WIRE 2272 480 2272 112
WIRE 2272 480 2000 480
WIRE 2480 480 2480 -80
WIRE 2480 480 2272 480
WIRE 2688 480 2688 112
WIRE 2688 480 2480 480
WIRE 2848 480 2848 128
WIRE 2848 480 2688 480
WIRE 3008 480 2848 480
WIRE 3280 480 3280 -48
WIRE 3280 480 3008 480
WIRE 2000 496 2000 480
FLAG 2000 496 0
FLAG 2240 -176 Vin
FLAG 944 176 Vcurrent
FLAG 1856 176 Vvoltage
SYMBOL ind 240 -160 R0
SYMATTR InstName L1
SYMATTR Value 40mH
SYMBOL res 240 352 R0
SYMATTR InstName R2
SYMATTR Value 0.56493
SYMBOL res 240 -16 R0
SYMATTR InstName R1
SYMATTR Value 17.034
SYMBOL voltage -16 0 R0
WINDOW 39 0 0 Left 0
SYMATTR InstName V1
SYMATTR Value SINE(0 19.79898987 50)
SYMATTR Value2 AC 19.79898987
SYMBOL res 1104 64 R0
SYMATTR InstName R3
SYMATTR Value 820k
SYMBOL res 1104 240 R0
SYMATTR InstName R4
SYMATTR Value 39k
SYMBOL PowerProducts/LT1085-5 2480 -176 R0
SYMATTR InstName Reg1
SYMBOL res 2224 -192 R90
WINDOW 0 0 56 VBottom 2
WINDOW 3 32 56 VTop 2
SYMATTR InstName Rin1
SYMATTR Value 33
SYMBOL diode 2048 -160 R270
WINDOW 0 32 32 VTop 2
WINDOW 3 0 32 VBottom 2
SYMATTR InstName D1
SYMATTR Value 1N4148
SYMBOL cap 2256 48 R0
SYMATTR InstName Cin1
SYMATTR Value 470µ
SYMATTR SpiceLine Rser=0.001
SYMBOL cap 2672 48 R0
SYMATTR InstName Cout1
SYMATTR Value 47µ
SYMATTR SpiceLine Rser=0.001
SYMBOL Opamps/opamp2 3280 -144 R0
WINDOW 0 23 81 Left 2
WINDOW 3 24 105 Left 2
SYMATTR InstName U3
SYMATTR Value LM324
SYMBOL res 2992 -192 R0
SYMATTR InstName R8
SYMATTR Value 39k
SYMBOL res 2992 -48 R0
SYMATTR InstName R9
SYMATTR Value 27k
SYMBOL res 2992 384 R0
SYMATTR InstName R11
SYMATTR Value 39
SYMBOL res 2992 64 R0
SYMATTR InstName R10
SYMATTR Value 1.2k
SYMBOL Opamps/opamp2 624 112 R0
WINDOW 0 23 81 Left 2
WINDOW 3 24 105 Left 2
SYMATTR InstName U4
SYMATTR Value LM324
SYMBOL res 544 192 R90
WINDOW 0 62 55 VBottom 2
WINDOW 3 61 57 VTop 2
SYMATTR InstName R12
SYMATTR Value 3.9k
SYMBOL res 544 128 R90
WINDOW 0 -32 53 VBottom 2
WINDOW 3 -32 55 VTop 2
SYMATTR InstName R13
SYMATTR Value 3.9k
SYMBOL res 672 64 R90
WINDOW 0 -30 61 VBottom 2
WINDOW 3 -31 62 VTop 2
SYMATTR InstName R14
SYMATTR Value 8.2k
SYMBOL res 576 320 R180
WINDOW 0 -62 57 Left 2
WINDOW 3 -44 34 Left 2
SYMATTR InstName R15
SYMATTR Value 8.2k
SYMBOL res 848 160 R90
WINDOW 0 62 55 VBottom 2
WINDOW 3 61 57 VTop 2
SYMATTR InstName Rf2
SYMATTR Value 10k
SYMBOL cap 896 272 R180
WINDOW 0 29 13 Left 2
WINDOW 3 33 -11 Left 2
SYMATTR InstName Cf2
SYMATTR Value 15.91549n
SYMBOL Opamps/opamp2 1504 112 R0
WINDOW 0 23 81 Left 2
WINDOW 3 24 105 Left 2
SYMATTR InstName U1
SYMATTR Value LM324
SYMBOL res 1424 192 R90
WINDOW 0 62 55 VBottom 2
WINDOW 3 61 57 VTop 2
SYMATTR InstName R6
SYMATTR Value 18k
SYMBOL res 1424 128 R90
WINDOW 0 -32 53 VBottom 2
WINDOW 3 -32 55 VTop 2
SYMATTR InstName R16
SYMATTR Value 56k
SYMBOL res 1552 64 R90
WINDOW 0 -30 61 VBottom 2
WINDOW 3 -31 62 VTop 2
SYMATTR InstName R17
SYMATTR Value 56k
SYMBOL res 1456 320 R180
WINDOW 0 -62 57 Left 2
WINDOW 3 -44 34 Left 2
SYMATTR InstName R18
SYMATTR Value 56k
SYMBOL res 1760 160 R90
WINDOW 0 62 55 VBottom 2
WINDOW 3 61 57 VTop 2
SYMATTR InstName Rf3
SYMATTR Value 10k
SYMBOL cap 1808 272 R180
WINDOW 0 29 13 Left 2
WINDOW 3 33 -11 Left 2
SYMATTR InstName Cf3
SYMATTR Value 15.91549n
SYMBOL res 2832 32 R0
SYMATTR InstName R5
SYMATTR Value 100
TEXT 0 672 Left 2 !.ac dec 30 1 1Meg
TEXT 0 608 Left 2 !.lib LM324.lib
TEXT -8 544 Left 2 ;Simulation Commands\n- Change these as needed
TEXT 0 640 Left 2 ;.tran 0 1 0 0.1m
TEXT 0 704 Left 2 !.ic V(Vin)=8
RECTANGLE Normal -40 528 396 732 2
