Version 4
SHEET 1 4772 1444
WIRE 4496 -384 2960 -384
WIRE 1296 -304 736 -304
WIRE 1728 -304 1296 -304
WIRE 2576 -304 1728 -304
WIRE 3952 -304 2576 -304
WIRE 4224 -304 3952 -304
WIRE 256 -176 -16 -176
WIRE 2064 -176 256 -176
WIRE 2992 -176 2064 -176
WIRE 3072 -176 3056 -176
WIRE 3184 -176 3152 -176
WIRE 3216 -176 3184 -176
WIRE 3296 -176 3216 -176
WIRE 3632 -176 3552 -176
WIRE 3792 -176 3632 -176
WIRE 3952 -176 3952 -304
WIRE 3952 -176 3792 -176
WIRE 4368 -176 4080 -176
WIRE 256 -144 256 -176
WIRE 4224 -112 4224 -304
WIRE 4080 -96 4080 -176
WIRE 4192 -96 4080 -96
WIRE 4368 -80 4368 -176
WIRE 4368 -80 4256 -80
WIRE 4496 -80 4496 -384
WIRE 4496 -80 4368 -80
WIRE 3952 -64 3952 -96
WIRE 4192 -64 3952 -64
WIRE 3952 -32 3952 -64
WIRE 256 0 256 -64
WIRE -16 16 -16 -176
WIRE 3216 48 3216 -176
WIRE 3632 48 3632 -176
WIRE 3792 48 3792 -176
WIRE 576 80 560 80
WIRE 688 80 656 80
WIRE 2064 80 2064 -176
WIRE 2400 80 2384 80
WIRE 2512 80 2480 80
WIRE 3952 80 3952 48
WIRE 448 144 400 144
WIRE 560 144 560 80
WIRE 560 144 528 144
WIRE 736 144 736 -304
WIRE 736 144 624 144
WIRE 2272 144 2224 144
WIRE 2384 144 2384 80
WIRE 2384 144 2352 144
WIRE 2576 144 2576 -304
WIRE 2576 144 2448 144
WIRE 560 160 560 144
WIRE 592 160 560 160
WIRE 2384 160 2384 144
WIRE 2416 160 2384 160
WIRE 688 176 688 80
WIRE 688 176 656 176
WIRE 752 176 688 176
WIRE 880 176 832 176
WIRE 944 176 880 176
WIRE 2512 176 2512 80
WIRE 2512 176 2480 176
WIRE 2608 176 2512 176
WIRE 2736 176 2688 176
WIRE 2800 176 2736 176
WIRE 592 192 560 192
WIRE 2416 192 2384 192
WIRE 256 208 256 80
WIRE 448 208 256 208
WIRE 560 208 560 192
WIRE 560 208 528 208
WIRE 880 208 880 176
WIRE 2064 208 2064 160
WIRE 2272 208 2064 208
WIRE 2384 208 2384 192
WIRE 2384 208 2352 208
WIRE 2736 208 2736 176
WIRE 560 224 560 208
WIRE 624 224 624 208
WIRE 640 224 624 224
WIRE 2384 224 2384 208
WIRE 2448 240 2448 208
WIRE 2480 240 2448 240
WIRE 2064 256 2064 208
WIRE 256 368 256 208
WIRE 560 384 560 304
WIRE 1632 384 560 384
WIRE 2384 384 2384 304
WIRE 2384 384 1632 384
WIRE 2960 384 2960 -384
WIRE 2960 384 2384 384
WIRE 3952 400 3952 160
WIRE -16 480 -16 96
WIRE 256 480 256 448
WIRE 256 480 -16 480
WIRE 400 480 400 144
WIRE 400 480 256 480
WIRE 640 480 640 224
WIRE 640 480 400 480
WIRE 880 480 880 272
WIRE 880 480 640 480
WIRE 1424 480 880 480
WIRE 1888 480 1424 480
WIRE 2064 480 2064 336
WIRE 2064 480 1888 480
WIRE 2224 480 2224 144
WIRE 2224 480 2064 480
WIRE 2480 480 2480 240
WIRE 2480 480 2224 480
WIRE 2736 480 2736 272
WIRE 2736 480 2480 480
WIRE 2944 480 2736 480
WIRE 3216 480 3216 112
WIRE 3216 480 2944 480
WIRE 3424 480 3424 -80
WIRE 3424 480 3216 480
WIRE 3632 480 3632 112
WIRE 3632 480 3424 480
WIRE 3792 480 3792 128
WIRE 3792 480 3632 480
WIRE 3952 480 3792 480
WIRE 4224 480 4224 -48
WIRE 4224 480 3952 480
WIRE 2944 496 2944 480
WIRE 1440 624 1152 624
WIRE 1728 672 1728 -304
WIRE 1296 688 1296 -304
WIRE 1632 688 1632 384
WIRE 1696 688 1632 688
WIRE 1152 704 1152 624
WIRE 1264 704 1152 704
WIRE 1968 704 1760 704
WIRE 2112 704 1968 704
WIRE 1440 720 1440 624
WIRE 1440 720 1328 720
WIRE 1520 720 1440 720
WIRE 1648 720 1600 720
WIRE 1696 720 1648 720
WIRE 1264 736 928 736
WIRE 1888 736 1888 480
WIRE 1888 736 1728 736
WIRE 1424 752 1424 480
WIRE 1424 752 1296 752
WIRE 1648 800 1648 720
WIRE 1824 800 1648 800
WIRE 1968 800 1968 704
WIRE 1968 800 1904 800
FLAG 2944 496 0
FLAG 3184 -176 Vin
FLAG 944 176 Vcurrent
FLAG 2800 176 Vvoltage
FLAG 928 736 Vcurrent
SYMBOL ind 240 -160 R0
SYMATTR InstName L1
SYMATTR Value 40mH
SYMBOL res 240 352 R0
SYMATTR InstName R2
SYMATTR Value 0.56493
SYMBOL res 240 -16 R0
SYMATTR InstName R1
SYMATTR Value 17.034
SYMBOL voltage -16 0 R0
WINDOW 39 0 0 Left 0
SYMATTR InstName V1
SYMATTR Value SINE(0 19.79898987 50)
SYMATTR Value2 AC 19.79898987
SYMBOL res 2048 64 R0
SYMATTR InstName R3
SYMATTR Value 820k
SYMBOL res 2048 240 R0
SYMATTR InstName R4
SYMATTR Value 39k
SYMBOL PowerProducts/LT1085-5 3424 -176 R0
SYMATTR InstName Reg1
SYMBOL res 3168 -192 R90
WINDOW 0 0 56 VBottom 2
WINDOW 3 32 56 VTop 2
SYMATTR InstName Rin1
SYMATTR Value 33
SYMBOL diode 2992 -160 R270
WINDOW 0 32 32 VTop 2
WINDOW 3 0 32 VBottom 2
SYMATTR InstName D1
SYMATTR Value 1N4148
SYMBOL cap 3200 48 R0
SYMATTR InstName Cin1
SYMATTR Value 470µ
SYMATTR SpiceLine Rser=0.001
SYMBOL cap 3616 48 R0
SYMATTR InstName Cout1
SYMATTR Value 47µ
SYMATTR SpiceLine Rser=0.001
SYMBOL Opamps/opamp2 4224 -144 R0
WINDOW 0 23 81 Left 2
WINDOW 3 24 105 Left 2
SYMATTR InstName U3
SYMATTR Value LM324
SYMBOL res 3936 -192 R0
SYMATTR InstName R8
SYMATTR Value 39k
SYMBOL res 3936 -48 R0
SYMATTR InstName R9
SYMATTR Value 27k
SYMBOL res 3936 384 R0
SYMATTR InstName R11
SYMATTR Value 39
SYMBOL res 3936 64 R0
SYMATTR InstName R10
SYMATTR Value 1.2k
SYMBOL Opamps/opamp2 624 112 R0
WINDOW 0 23 81 Left 2
WINDOW 3 24 105 Left 2
SYMATTR InstName U4
SYMATTR Value LM324
SYMBOL res 544 192 R90
WINDOW 0 62 55 VBottom 2
WINDOW 3 61 57 VTop 2
SYMATTR InstName R12
SYMATTR Value 3.9k
SYMBOL res 544 128 R90
WINDOW 0 -32 53 VBottom 2
WINDOW 3 -32 55 VTop 2
SYMATTR InstName R13
SYMATTR Value 3.9k
SYMBOL res 672 64 R90
WINDOW 0 -30 61 VBottom 2
WINDOW 3 -31 62 VTop 2
SYMATTR InstName R14
SYMATTR Value 8.2k
SYMBOL res 576 320 R180
WINDOW 0 -62 57 Left 2
WINDOW 3 -44 34 Left 2
SYMATTR InstName R15
SYMATTR Value 8.2k
SYMBOL res 848 160 R90
WINDOW 0 62 55 VBottom 2
WINDOW 3 61 57 VTop 2
SYMATTR InstName Rf2
SYMATTR Value 10k
SYMBOL cap 896 272 R180
WINDOW 0 29 13 Left 2
WINDOW 3 33 -11 Left 2
SYMATTR InstName Cf2
SYMATTR Value 15.91549n
SYMBOL Opamps/opamp2 2448 112 R0
WINDOW 0 23 81 Left 2
WINDOW 3 24 105 Left 2
SYMATTR InstName U1
SYMATTR Value LM324
SYMBOL res 2368 192 R90
WINDOW 0 62 55 VBottom 2
WINDOW 3 61 57 VTop 2
SYMATTR InstName R6
SYMATTR Value 18k
SYMBOL res 2368 128 R90
WINDOW 0 -32 53 VBottom 2
WINDOW 3 -32 55 VTop 2
SYMATTR InstName R16
SYMATTR Value 56k
SYMBOL res 2496 64 R90
WINDOW 0 -30 61 VBottom 2
WINDOW 3 -31 62 VTop 2
SYMATTR InstName R17
SYMATTR Value 56k
SYMBOL res 2400 320 R180
WINDOW 0 -62 57 Left 2
WINDOW 3 -44 34 Left 2
SYMATTR InstName R18
SYMATTR Value 56k
SYMBOL res 2704 160 R90
WINDOW 0 62 55 VBottom 2
WINDOW 3 61 57 VTop 2
SYMATTR InstName Rf3
SYMATTR Value 10k
SYMBOL cap 2752 272 R180
WINDOW 0 29 13 Left 2
WINDOW 3 33 -11 Left 2
SYMATTR InstName Cf3
SYMATTR Value 15.91549n
SYMBOL res 3776 32 R0
SYMATTR InstName R5
SYMATTR Value 100
SYMBOL Opamps/opamp2 1728 640 R0
WINDOW 0 23 81 Left 2
WINDOW 3 24 105 Left 2
SYMATTR InstName U2
SYMATTR Value LM324
SYMBOL res 1616 704 R90
WINDOW 0 0 56 VBottom 2
WINDOW 3 32 56 VTop 2
SYMATTR InstName R7
SYMATTR Value 357.1
SYMBOL res 1920 784 R90
WINDOW 0 0 56 VBottom 2
WINDOW 3 32 56 VTop 2
SYMATTR InstName R19
SYMATTR Value 10000
SYMBOL Opamps/opamp2 1296 656 R0
WINDOW 0 23 81 Left 2
WINDOW 3 24 105 Left 2
SYMATTR InstName U5
SYMATTR Value LM324
TEXT 0 672 Left 2 ;.ac dec 30 1 1Meg
TEXT 0 608 Left 2 !.lib LM324.lib
TEXT -8 544 Left 2 ;Simulation Commands\n- Change these as needed
TEXT 0 640 Left 2 !.tran 0 1 0 0.1m
TEXT 0 704 Left 2 !.ic V(Vin)=8
RECTANGLE Normal -40 528 396 732 2
